# generated using pymatgen
data_LiTaO3
_symmetry_space_group_name_H-M   'P 1'
_cell_length_a   5.20829097
_cell_length_b   5.20829097
_cell_length_c   13.93662478
_cell_angle_alpha   90.00000000
_cell_angle_beta   90.00000000
_cell_angle_gamma   120.00000000
_symmetry_Int_Tables_number   1
_chemical_formula_structural   LiTaO3
_chemical_formula_sum   'Li6 Ta6 O18'
_cell_volume   327.40003129
_cell_formula_units_Z   6
loop_
 _symmetry_equiv_pos_site_id
 _symmetry_equiv_pos_as_xyz
  1  'x, y, z'
loop_
 _atom_site_type_symbol
 _atom_site_label
 _atom_site_symmetry_multiplicity
 _atom_site_fract_x
 _atom_site_fract_y
 _atom_site_fract_z
 _atom_site_occupancy
  Li  Li1  1  0.666667  0.333333  0.051077  1
  Li  Li2  1  0.000000  0.000000  0.217744  1
  Li  Li3  1  0.333333  0.666667  0.384410  1
  Li  Li4  1  0.666667  0.333333  0.551077  1
  Li  Li5  1  0.000000  0.000000  0.717744  1
  Li  Li6  1  0.333333  0.666667  0.884410  1
  Ta  Ta7  1  0.000000  0.000000  0.000553  1
  Ta  Ta8  1  0.333333  0.666667  0.167219  1
  Ta  Ta9  1  0.666667  0.333333  0.333886  1
  Ta  Ta10  1  0.000000  0.000000  0.500553  1
  Ta  Ta11  1  0.333333  0.666667  0.667219  1
  Ta  Ta12  1  0.666667  0.333333  0.833886  1
  O  O13  1  0.041513  0.717692  0.097835  1
  O  O14  1  0.374846  0.990487  0.264501  1
  O  O15  1  0.009513  0.384359  0.264501  1
  O  O16  1  0.615641  0.625154  0.264501  1
  O  O17  1  0.676180  0.958487  0.097835  1
  O  O18  1  0.282308  0.323820  0.097835  1
  O  O19  1  0.708179  0.051026  0.431168  1
  O  O20  1  0.041513  0.323820  0.597835  1
  O  O21  1  0.676180  0.717692  0.597835  1
  O  O22  1  0.282308  0.958487  0.597835  1
  O  O23  1  0.342847  0.291821  0.431168  1
  O  O24  1  0.948974  0.657153  0.431168  1
  O  O25  1  0.374846  0.384359  0.764501  1
  O  O26  1  0.708179  0.657153  0.931168  1
  O  O27  1  0.342847  0.051026  0.931168  1
  O  O28  1  0.948974  0.291821  0.931168  1
  O  O29  1  0.009513  0.625154  0.764501  1
  O  O30  1  0.615641  0.990487  0.764501  1
